Circuit: * C:\Users\austi\Downloads\LTC3105 Simulation.asc

Direct Newton iteration for .op point succeeded.
