Circuit: * C:\Users\austi\Downloads\Solar Cell Modeling.asc

Direct Newton iteration for .op point succeeded.

Date: Thu Dec 17 19:43:50 2020
Total elapsed time: 0.645 seconds.

tnom = 27
temp = 27
method = trap
totiter = 3
traniter = 0
tranpoints = 0
accept = 0
rejected = 0
matrix size = 2
fillins = 0
solver = Normal
Matrix Compiler1: 54 bytes object code size
Matrix Compiler2: 116 bytes object code size
